<?xml version="1.0" encoding="ISO-8859-1"?>
<febio_spec version="2.5">
	<Globals>
		<Constants>
			<T>0</T>
			<R>0</R>
			<Fc>0</Fc>
		</Constants>
	</Globals>
	<Material>
		<material id="1" name="Default-Steel" type="isotropic elastic">
			<density>7e-006</density>
			<E>206800</E>
			<v>9.16848e-312</v>
		</material>
	</Material>
	<Geometry>
		<Nodes name="eedleAbaqusModel">
			<node id="1"> 8.0000000e+000, 1.4498015e+001, 9.9996834e+000</node>
			<node id="2"> 8.3673300e+000, 1.4130685e+001, 8.9032088e+000</node>
			<node id="3"> 1.2000000e+001, 5.7497988e+001, 9.9996845e+000</node>
			<node id="4"> 8.3673210e+000, 5.7497988e+001, 8.9032213e+000</node>
			<node id="5"> 8.1424190e+000, 1.4355596e+001, 1.0703239e+001</node>
			<node id="6"> 8.5006950e+000, 1.3997320e+001, 1.1256104e+001</node>
			<node id="7"> 8.9726900e+000, 1.3525325e+001, 1.1628503e+001</node>
			<node id="8"> 9.4982500e+000, 1.2999765e+001, 1.1837371e+001</node>
			<node id="9"> 1.0044731e+001, 1.2453285e+001, 1.1897608e+001</node>
			<node id="10"> 1.0589464e+001, 1.1908552e+001, 1.1813756e+001</node>
			<node id="11"> 1.1108986e+001, 1.1389030e+001, 1.1579509e+001</node>
			<node id="12"> 1.1567624e+001, 1.0930393e+001, 1.1178585e+001</node>
			<node id="13"> 1.1898584e+001, 1.0599433e+001, 1.0596531e+001</node>
			<node id="14"> 1.1996005e+001, 1.0502012e+001, 9.8797481e+000</node>
			<node id="15"> 1.1810832e+001, 1.0687185e+001, 9.1937652e+000</node>
			<node id="16"> 1.1428083e+001, 1.1069934e+001, 8.6706083e+000</node>
			<node id="17"> 1.0944270e+001, 1.1553746e+001, 8.3261950e+000</node>
			<node id="18"> 1.0413500e+001, 1.2084516e+001, 8.1423008e+000</node>
			<node id="19"> 9.8658530e+000, 1.2632163e+001, 8.1055592e+000</node>
			<node id="20"> 9.3234672e+000, 1.3174548e+001, 8.2131938e+000</node>
<!-- ... 2324 like lines cut -->
		</Nodes>
		<Elements type="tet4" name="Part1">
			<elem id="1">  1086,  1087,  1088,  1089</elem>
			<elem id="2">  1090,  1091,  1092,  1089</elem>
			<elem id="3">  1090,  1093,  1094,  1089</elem>
			<elem id="4">  1095,  1096,  1086,  1097</elem>
			<elem id="5">  1094,  1093,  1095,  1089</elem>
			<elem id="6">  1093,  1092,  1097,  1089</elem>
			<elem id="7">  1098,  1099,  1100,  1097</elem>
			<elem id="8">  1098,  1093,  1092,  1097</elem>
			<elem id="9">  1095,  1100,  1096,  1097</elem>
			<elem id="10">  1099,  1101,  1100,  1097</elem>
			<elem id="11">  1100,  1101,  1096,  1097</elem>
			<elem id="12">   748,  1102,  1103,  1104</elem>
			<elem id="13">  1105,  1087,  1106,  1097</elem>
			<elem id="14">  1107,  1108,  1109,  1110</elem>
			<elem id="15">  1108,  1111,  1112,  1113</elem>
			<elem id="16">  1114,  1115,  1116,  1117</elem>
			<elem id="17">  1108,  1110,  1118,  1111</elem>
			<elem id="18">  1108,  1110,  1111,  1113</elem>
			<elem id="19">  1119,  1120,  1121,  1113</elem>
			<elem id="20">  1108,  1112,  1122,  1113</elem>
<!-- ... 10455 like lines cut -->
		</Elements>
	</Geometry>
	<Output>
		<plotfile type="febio"/>
	</Output>
</febio_spec>
