<?xml version="1.0" encoding="ISO-8859-1"?>
<febio_spec version="2.5">
	<Globals>
		<Constants>
			<T>0</T>
			<R>0</R>
			<Fc>0</Fc>
		</Constants>
	</Globals>
	<Material>
		<material id="1" name="Default-Steel" type="isotropic elastic">
			<density>7e-006</density>
			<E>206800</E>
			<v>1.29517e-311</v>
		</material>
	</Material>
	<Geometry>
		<Nodes name="eedleAbaqusModel">
			<node id="1">-2.0000000e+000,-2.4492940e-016, 7.0000000e+000</node>
			<node id="2">-1.6326700e+000, 1.1551570e+000, 6.6326700e+000</node>
			<node id="3"> 2.0000000e+000, 0.0000000e+000, 5.0000000e+001</node>
			<node id="4">-1.6326790e+000, 1.1551450e+000, 5.0000000e+001</node>
			<node id="5">-1.8575810e+000,-7.4120920e-001, 6.8575810e+000</node>
			<node id="6">-1.4993050e+000,-1.3236630e+000, 6.4993050e+000</node>
			<node id="7">-1.0273100e+000,-1.7159930e+000, 6.0273100e+000</node>
			<node id="8">-5.0175000e-001,-1.9360390e+000, 5.5017500e+000</node>
			<node id="9"> 4.4730680e-002,-1.9995000e+000, 4.9552690e+000</node>
			<node id="10"> 5.8946390e-001,-1.9111600e+000, 4.4105360e+000</node>
			<node id="11"> 1.1089860e+000,-1.6643770e+000, 3.8910140e+000</node>
			<node id="12"> 1.5676240e+000,-1.2419960e+000, 3.4323760e+000</node>
			<node id="13"> 1.8985840e+000,-6.2879100e-001, 3.1014160e+000</node>
			<node id="14"> 1.9960050e+000, 1.2635400e-001, 3.0039950e+000</node>
			<node id="15"> 1.8108320e+000, 8.4905010e-001, 3.1891680e+000</node>
			<node id="16"> 1.4280830e+000, 1.4002060e+000, 3.5719170e+000</node>
			<node id="17"> 9.4427030e-001, 1.7630520e+000, 4.0557300e+000</node>
			<node id="18"> 4.1349960e-001, 1.9567880e+000, 4.5865000e+000</node>
			<node id="19">-1.3414700e-001, 1.9954960e+000, 5.1341470e+000</node>
			<node id="20">-6.7653280e-001, 1.8821010e+000, 5.6765330e+000</node>
<!-- ... 2324 like lines cut -->
		</Nodes>
		<Elements type="tet4" name="Part1">
			<elem id="1">  1086,  1087,  1088,  1089</elem>
			<elem id="2">  1090,  1091,  1092,  1089</elem>
			<elem id="3">  1090,  1093,  1094,  1089</elem>
			<elem id="4">  1095,  1096,  1086,  1097</elem>
			<elem id="5">  1094,  1093,  1095,  1089</elem>
			<elem id="6">  1093,  1092,  1097,  1089</elem>
			<elem id="7">  1098,  1099,  1100,  1097</elem>
			<elem id="8">  1098,  1093,  1092,  1097</elem>
			<elem id="9">  1095,  1100,  1096,  1097</elem>
			<elem id="10">  1099,  1101,  1100,  1097</elem>
			<elem id="11">  1100,  1101,  1096,  1097</elem>
			<elem id="12">   748,  1102,  1103,  1104</elem>
			<elem id="13">  1105,  1087,  1106,  1097</elem>
			<elem id="14">  1107,  1108,  1109,  1110</elem>
			<elem id="15">  1108,  1111,  1112,  1113</elem>
			<elem id="16">  1114,  1115,  1116,  1117</elem>
			<elem id="17">  1108,  1110,  1118,  1111</elem>
			<elem id="18">  1108,  1110,  1111,  1113</elem>
			<elem id="19">  1119,  1120,  1121,  1113</elem>
			<elem id="20">  1108,  1112,  1122,  1113</elem>
<!-- ... 10455 like lines cut -->
		</Elements>
	</Geometry>
	<Output>
		<plotfile type="febio"/>
	</Output>
</febio_spec>
