<?xml version="1.0" encoding="ISO-8859-1"?>
<febio_spec version="2.5">
	<Globals>
		<Constants>
			<T>0</T>
			<R>0</R>
			<Fc>0</Fc>
		</Constants>
	</Globals>
	<Material>
		<material id="1" name="Default-Steel" type="isotropic elastic">
			<density>7e-006</density>
			<E>206800</E>
			<v>9.16848e-312</v>
		</material>
		<material id="2" name="Default-Steel" type="isotropic elastic">
			<density>7e-006</density>
			<E>206800</E>
			<v>9.16734e-312</v>
		</material>
		<material id="3" name="Default-Steel" type="isotropic elastic">
			<density>7e-006</density>
			<E>206800</E>
			<v>9.16851e-312</v>
		</material>
	</Material>
	<Geometry>
		<Nodes name="horter_needle">
			<node id="1"> 1.2000000e+001, 3.2500000e+001, 1.0000000e+001</node>
			<node id="2"> 1.1931852e+001, 3.2500000e+001, 1.0517638e+001</node>
			<node id="3"> 1.1732051e+001, 3.2500000e+001, 1.1000000e+001</node>
			<node id="4"> 1.1414214e+001, 3.2500000e+001, 1.1414214e+001</node>
			<node id="5"> 1.1000000e+001, 3.2500000e+001, 1.1732051e+001</node>
			<node id="6"> 1.0517638e+001, 3.2500000e+001, 1.1931852e+001</node>
			<node id="7"> 1.0000000e+001, 3.2500000e+001, 1.2000000e+001</node>
			<node id="8"> 9.4823619e+000, 3.2500000e+001, 1.1931852e+001</node>
			<node id="9"> 9.0000000e+000, 3.2500000e+001, 1.1732051e+001</node>
			<node id="10"> 8.5857860e+000, 3.2500000e+001, 1.1414214e+001</node>
			<node id="11"> 8.2679490e+000, 3.2500000e+001, 1.1000000e+001</node>
			<node id="12"> 8.0681480e+000, 3.2500000e+001, 1.0517638e+001</node>
			<node id="13"> 8.0000000e+000, 3.2500000e+001, 1.0000000e+001</node>
			<node id="14"> 8.0681480e+000, 3.2500000e+001, 9.4823622e+000</node>
			<node id="15"> 8.2679490e+000, 3.2500000e+001, 9.0000003e+000</node>
			<node id="16"> 8.5857860e+000, 3.2500000e+001, 8.5857863e+000</node>
			<node id="17"> 9.0000000e+000, 3.2500000e+001, 8.2679493e+000</node>
			<node id="18"> 9.4823619e+000, 3.2500000e+001, 8.0681483e+000</node>
			<node id="19"> 1.0000000e+001, 3.2500000e+001, 8.0000003e+000</node>
			<node id="20"> 1.0517638e+001, 3.2500000e+001, 8.0681483e+000</node>
<!-- ... 2057 like lines cut -->
		</Nodes>
		<Elements type="hex8" name="Part3">
			<elem id="1">   830,   795,   796,   817,    52,    32,    33,    67</elem>
			<elem id="2">   815,   794,   795,   830,    66,    31,    32,    52</elem>
			<elem id="3">   827,   815,   830,   817,    63,    66,    52,    67</elem>
			<elem id="4">   829,   825,   823,   824,    65,    61,    59,    60</elem>
			<elem id="5">   826,   829,   824,   813,    62,    65,    60,    49</elem>
			<elem id="6">   819,   825,   829,   828,    55,    61,    65,    64</elem>
			<elem id="7">   827,   828,   829,   826,    63,    64,    65,    62</elem>
			<elem id="8">   816,   818,   819,   828,    53,    54,    55,    64</elem>
			<elem id="9">   817,   816,   828,   827,    67,    53,    64,    63</elem>
			<elem id="10">   814,   815,   827,   826,    51,    66,    63,    62</elem>
			<elem id="11">   812,   814,   826,   813,    50,    51,    62,    49</elem>
			<elem id="12">   821,   822,   823,   825,    57,    58,    59,    61</elem>
			<elem id="13">   820,   821,   825,   819,    56,    57,    61,    55</elem>
			<elem id="14">   789,   788,   813,   824,    25,    26,    49,    60</elem>
			<elem id="15">   811,   789,   824,   810,    48,    25,    60,    47</elem>
			<elem id="16">   809,   810,   824,   823,    46,    47,    60,    59</elem>
			<elem id="17">   808,   809,   823,   822,    45,    46,    59,    58</elem>
			<elem id="18">   807,   808,   822,   806,    44,    45,    58,    43</elem>
			<elem id="19">   805,   806,   822,   821,    42,    43,    58,    57</elem>
			<elem id="20">   804,   805,   821,   820,    41,    42,    57,    56</elem>
<!-- ... 1600 like lines cut -->
		</Elements>
	</Geometry>
	<Output>
		<plotfile type="febio"/>
	</Output>
</febio_spec>
